23

Br         1.08917        0.85189        0.39007
C          2.83864        0.40505       -0.10477
C          3.24139       -0.86369       -0.21235
C          2.53423       -2.14015        0.04648
C          3.21261       -3.19139        0.95973
C          3.48171       -3.15200       -0.52088
N          4.86665       -2.57713       -0.73448
C          5.58911       -3.11996        0.46300
C          4.56351       -2.89032        1.61415
C          4.78633       -3.69937        2.79612
C          5.12134       -4.15101        3.86061
C          4.67895       -1.16830       -0.60699
N          5.66535       -0.33586       -0.60592
C          5.46385        0.94508       -0.16841
O          6.34552        1.57282        0.40603
S          3.90002        1.73366       -0.39881
H          1.49422       -2.23506       -0.24007
H          2.63656       -4.01120        1.36039
H          3.16957       -3.95973       -1.16653
H          6.54902       -2.62741        0.64243
H          5.77269       -4.19075        0.30476
H          4.58201       -1.83383        1.92169
H          5.50294       -4.41766        4.81915
