29

Br         1.65219       -0.07041        0.17192
C          3.45085       -0.30080       -0.28999
C          4.29629        0.72172       -0.44447
C          4.06475        2.02081        0.13591
C          5.24588        2.00220        1.34572
C          5.75170        3.37225        1.14302
C          4.23612        3.91994        1.28404
C          3.60840        3.46598       -0.03526
C          4.47694        4.39345       -0.86944
C          5.22197        5.18903       -1.58499
C          6.74757        3.02724       -0.13805
N          6.37377        1.85985       -1.15576
C          5.69252        0.64192       -0.82636
C          6.23156       -0.52568       -0.46420
C          5.32426       -1.58180       -0.00151
O          5.82686       -2.56698        0.59850
O          3.98944       -1.59270       -0.24805
H          4.25115        2.25656       -0.92863
H          6.10054        1.30917        1.31775
H          4.87477        1.85301        2.37290
H          6.36056        3.87892        1.89720
H          4.12556        4.97201        1.54794
H          3.68080        3.40559        2.10359
H          2.53287        3.63937       -0.09489
H          5.81853        5.84757       -2.17464
H          7.68775        2.68160        0.28862
H          7.06719        3.92650       -0.70771
H          5.84844        2.32480       -1.90725
H          7.28636       -0.68072       -0.38306
