22

Br         1.28533        0.35820       -0.39443
C          3.04966       -0.15012       -0.14408
C          4.05957        0.69398       -0.35601
C          4.15392        2.11827       -0.88999
C          5.69291        2.38221       -0.67536
C          5.78699        2.77187        0.78568
O          4.35177        3.12863        1.17565
C          3.57219        3.41995       -0.06972
C          4.44073        4.34741       -0.90389
N          5.16126        5.11682       -1.59591
C          6.27381        1.42106        0.24196
C          5.41755        0.25743        0.11492
N          5.93071       -0.90161        0.33102
S          4.94843       -2.19719        0.05117
C          3.34160       -1.52678        0.33681
N          2.51108       -2.29380        0.91108
H          3.91332        2.15948       -1.96373
H          6.29099        2.87466       -1.43017
H          6.56831        3.42550        1.16176
H          2.49608        3.51967        0.03940
H          7.33283        1.26710        0.03408
H          3.00874       -3.17918        1.12021
