23

Br         0.86964        0.12044       -0.14008
C          2.76774        0.18643       -0.25091
C          3.44215        1.30841        0.09336
C          2.75952        2.51525        0.66821
C          2.02902        3.63804       -0.20486
C          2.26781        4.88605       -1.04944
O          3.64526        4.91344       -1.46030
C          4.29047        4.11727       -0.58528
N          5.42941        3.57423       -0.78275
C          5.77200        2.55499        0.22029
C          4.96638        1.25610       -0.02889
N          5.70869        0.23151       -0.28396
S          5.10560       -1.28393       -0.51882
C          3.38183       -1.10386       -0.68890
O          2.70966       -2.04995       -1.08354
C          3.37641        3.79265        0.49875
H          2.29506        2.31424        1.63168
H          1.64990        3.00157       -1.01123
H          2.05925        5.79729       -0.47192
H          1.63156        4.90638       -1.94097
H          5.62698        2.89672        1.25232
H          6.84162        2.33701        0.12190
H          3.43069        4.44370        1.36256
