25

Br         1.88349       -1.09364       -1.19315
C          2.50310        0.44486       -0.33616
C          2.83024        0.45275        0.94930
C          2.86749       -0.50120        2.08608
C          2.06806       -1.74123        2.33818
N          0.69304       -1.74848        2.79227
C          1.73087       -1.71686        3.81940
C          2.32300       -0.44825        4.41430
C          2.40440        0.46171        3.20527
C          3.30775        1.66424        3.05139
C          3.19770        1.77034        1.53857
N          3.32143        2.89292        0.94815
S          2.96186        3.06577       -0.61867
O          1.72767        3.82012       -0.71068
O          4.14843        3.51546       -1.31158
O          2.63930        1.55660       -1.13235
H          3.92394       -0.77682        2.23616
H          2.50399       -2.65560        1.95378
H          0.22527       -0.85560        2.64203
H          1.80112       -2.59390        4.44546
H          3.32017       -0.66368        4.81492
H          1.70356       -0.02591        5.20927
H          1.37588        0.81275        3.00667
H          4.34288        1.49213        3.35375
H          2.89602        2.54876        3.54250
