26

Br         0.98411        0.85530       -0.69522
C          2.82361        0.46599       -0.70675
C          3.76324        1.42216       -0.56916
C          3.55615        2.86217       -0.24149
C          4.18681        4.17307       -0.78548
N          5.38401        5.09844       -0.88571
C          5.57696        5.84502        0.40044
C          5.78696        4.93228        1.63137
O          4.84337        3.86249        1.63285
C          4.80479        3.28296        0.33075
C          5.90324        2.33101       -0.06190
C          5.17001        1.07377       -0.37750
C          5.68276       -0.14619       -0.28293
C          4.86418       -1.37453       -0.37774
O          5.38340       -2.46625       -0.16187
S          3.17242       -1.23706       -0.78832
H          2.65213        3.03832        0.33863
H          3.34336        4.86688       -0.69630
H          5.23792        5.78962       -1.62750
H          4.69456        6.47269        0.57491
H          6.44301        6.51090        0.31434
H          5.65242        5.49166        2.56217
H          6.79322        4.50023        1.63964
H          6.63711        2.19820        0.73619
H          6.43087        2.67528       -0.96419
H          6.72708       -0.31351       -0.05188
