24

Br         1.06329       -0.38000       -0.19679
C          2.91759       -0.18025       -0.03451
C          3.73159       -1.21307        0.17545
C          3.34407       -2.63327        0.24676
C          2.91461       -3.57798       -0.83092
N          1.95609       -4.63164       -0.90321
C          2.76865       -5.67623       -1.32395
N          4.05510       -5.60782       -1.10505
C          4.14980       -4.49612       -0.16182
C          4.84146       -3.17269       -0.30063
O          5.75619       -2.45149        0.54817
C          5.17262       -1.17470        0.39299
C          5.90132       -0.05598        0.33971
S          5.21318        1.48831       -0.00572
C          3.48393        1.20186       -0.16349
N          2.77347        2.24954       -0.41831
H          3.06171       -2.91946        1.27093
H          3.06126       -3.17625       -1.84886
H          1.43704       -4.83962       -0.05289
H          2.25993       -6.47193       -1.88881
H          4.02666       -4.84785        0.87539
H          5.11894       -2.97800       -1.35340
H          6.97820       -0.11559        0.45698
H          3.41588        3.04859       -0.47677
