26

Br         1.04751       -0.44056       -0.21137
C          2.87370       -0.14934        0.04801
C          3.75048       -1.13793        0.22684
C          3.47986       -2.58010        0.22789
C          3.16723       -3.54707       -0.88667
O          2.14564       -4.53842       -0.98094
C          2.80643       -5.68106       -1.57201
C          4.33048       -5.44627       -1.36944
C          4.42822       -4.37185       -0.29457
C          4.99644       -2.96038       -0.26536
O          5.83844       -2.23592        0.65088
C          5.17618       -0.99029        0.49606
C          5.83600        0.16424        0.39153
C          5.14350        1.40567       -0.02275
N          5.77287        2.44596       -0.45398
S          3.39362        1.50351        0.05856
H          3.19215       -2.93034        1.22932
H          3.28528       -3.08552       -1.88153
H          2.56178       -5.71822       -2.63759
H          2.45754       -6.59270       -1.07311
H          4.79171       -5.10353       -2.30450
H          4.83342       -6.37280       -1.07776
H          4.28580       -4.81677        0.70171
H          5.30148       -2.67556       -1.29132
H          6.91283        0.19563        0.49001
H          6.78277        2.28521       -0.48072
