26

Br         1.01692       -0.29039        0.13384
C          2.89602       -0.18209       -0.03563
C          3.50758        1.01629       -0.37605
C          2.87601        2.36966       -0.56006
C          2.84954        3.79695       -0.15686
C          4.13562        3.15041        0.08514
C          5.33382        2.55305       -0.59078
N          6.58613        2.90542        0.10516
C          6.25133        3.29178        1.50495
S          4.50145        2.99208        1.87143
O          4.29403        1.65494        2.36459
O          3.95207        4.15882        2.54147
C          4.92701        1.08498       -0.48080
C          5.72168       -0.02269       -0.22735
C          5.09037       -1.20797        0.16313
C          3.68974       -1.29065        0.25399
H          2.61459        2.41422       -1.62546
H          2.20625        4.05425        0.68119
H          2.83715        4.57460       -0.91464
H          5.39622        2.83512       -1.64974
H          6.98258        3.72642       -0.35336
H          6.37503        4.37720        1.59579
H          6.88230        2.79155        2.23962
H          6.80487        0.05191       -0.22051
H          5.69057       -2.06507        0.45999
H          3.23084       -2.21230        0.60246
