23

Br         0.99244       -0.42331       -0.28154
C          2.82486       -0.23806        0.04213
C          3.66542       -1.28378        0.04507
C          3.50239       -2.70786       -0.34364
C          3.79665       -3.85679        0.57448
C          4.91911       -3.32382       -0.28926
C          5.86099       -2.32218        0.33189
C          7.17367       -1.76592       -0.22977
O          7.13565       -0.29130       -0.12846
C          5.78388       -0.00926        0.07824
C          5.06011       -1.08728        0.27982
C          5.14696        1.32348       -0.03619
O          5.78830        2.33939       -0.26809
S          3.39463        1.40251        0.28278
C          7.57381       -2.17697       -1.58526
C          8.06280       -2.48911       -2.63814
H          2.88957       -2.90443       -1.21743
H          3.37395       -4.82451        0.32510
H          3.81699       -3.67006        1.64417
H          5.28135       -3.89035       -1.13277
H          6.02430       -2.59771        1.38155
H          7.98552       -2.07346        0.44186
H          8.57077       -2.74433       -3.53608
