22

Br         0.53509       -0.31324       -1.01207
C          2.29975       -0.43625       -0.43816
C          3.26035       -1.19202       -0.98485
C          2.96582       -2.16243       -2.10703
C          3.03447       -1.60369       -3.48339
C          4.05812       -2.63935       -3.08073
C          5.41946       -2.41443       -2.48035
C          5.55395       -1.71468       -1.30658
O          6.86279       -1.78740       -0.93152
C          7.41800       -2.58438       -1.89240
N          6.59519       -3.00173       -2.83545
N          4.59838       -1.11130       -0.54378
N          5.05200       -0.27927        0.44719
N          4.27221        0.56804        0.92498
S          2.67163        0.32649        1.05699
O          2.41158       -0.62392        2.12676
O          2.02712        1.63293        1.10760
H          2.24488       -2.93311       -1.84944
H          3.33955       -0.57718       -3.64070
H          2.24138       -1.91640       -4.16077
H          3.98930       -3.53238       -3.68523
H          8.46758       -2.81735       -1.77524
