25

Br         1.12667       -1.18178        0.97021
C          2.45926       -0.74885        2.23028
C          2.65063        0.49304        2.75113
C          2.83091        1.61258        1.67596
C          2.10976        1.98894        0.38736
C          1.75457        2.70237        1.63868
C          2.29113        3.98767        2.16691
C          2.48082        3.36259        3.53938
C          2.64353        2.82639        4.71669
C          2.83322        2.20130        6.08916
C          3.34251        0.99595        5.61260
C          3.63914        0.55599        4.03889
C          4.87176        0.04416        3.81318
S          5.24951       -0.83401        2.36489
C          3.67705       -1.62986        2.13878
O          3.63163       -2.81290        1.80103
H          3.87907        1.91323        1.62102
H          1.30391        1.41895       -0.05495
H          2.62044        2.58826       -0.36442
H          0.75065        2.49495        2.00804
H          1.55604        4.79423        2.17942
H          3.23832        4.30232        1.72284
H          2.59314        2.57305        7.06732
H          3.67052        0.22873        6.31035
H          5.65729        0.07687        4.55694
