23

Br         1.06876       -0.52743        0.14071
C          2.91536       -0.26519       -0.04770
C          3.77939       -1.28222        0.00952
C          3.56693       -2.73050        0.23204
C          3.84105       -3.70650       -0.87164
C          4.97797       -3.34501        0.05950
C          5.48312       -4.40962        0.99595
C          6.09275       -5.55370        0.22814
O          5.72816       -6.71912        0.35267
N          5.91621       -2.24504       -0.29969
C          5.24368       -1.03709       -0.21585
N          5.85834        0.09323       -0.28634
C          5.13540        1.24018       -0.20653
N          5.82978        2.31215       -0.06462
S          3.40767        1.36701       -0.31258
H          2.97267       -3.03077        1.08572
H          3.88549       -3.35186       -1.89600
H          3.38978       -4.69107       -0.78682
H          4.67719       -4.80187        1.62616
H          6.25424       -4.00475        1.66043
H          6.92093       -5.28947       -0.45175
H          6.90104       -2.21721       -0.05961
H          6.80406        1.99048       -0.05079
