23

Br         1.04538        0.72563       -0.32236
C          2.86364        0.31244       -0.01627
C          3.41035       -0.90783       -0.25604
C          2.63357       -2.09763       -0.73424
C          1.34123       -2.50184       -0.05263
C          2.52555       -3.40737        0.05464
C          3.19466       -3.63751        1.38401
O          4.49606       -3.05525        1.40622
C          5.20642       -3.40838        0.30245
O          5.52790       -4.55642        0.03153
O          5.41982       -2.34351       -0.53474
C          4.87606       -1.07534       -0.17890
C          5.75478       -0.10555        0.09526
C          5.40320        1.27458        0.43338
O          6.28789        2.09987        0.62903
S          3.72643        1.69666        0.57411
H          2.66953       -2.20739       -1.81736
H          0.51913       -2.80352       -0.69446
H          1.01307       -2.00236        0.85218
H          2.48867       -4.32857       -0.52028
H          3.26627       -4.70739        1.61401
H          2.61872       -3.17344        2.19173
H          6.82130       -0.30155        0.07355
