22

Br         0.97304       -0.41329       -0.09787
C          2.83906       -0.20456       -0.08800
C          3.67084       -1.24781        0.04139
C          3.31045       -2.68509        0.19443
C          3.68687       -3.70503       -0.84516
C          4.64346       -3.41280        0.26748
N          5.69108       -2.40908        0.17396
C          5.13896       -1.14137        0.05328
C          5.80483        0.02378       -0.03695
C          7.32478        0.01474       -0.02770
C          8.62859        0.00698       -0.01976
C         10.16530       -0.02679       -0.01266
N         11.32349       -0.06301       -0.00726
C          5.11783        1.34894       -0.11829
N          5.71977        2.49266       -0.09784
S          3.37903        1.42425       -0.25958
H          2.56568       -2.93460        0.94004
H          3.94339       -3.37491       -1.84546
H          3.17228       -4.65997       -0.82407
H          4.77901       -4.14151        1.05949
H          6.68540       -2.56784        0.07459
H          6.73251        2.39161       -0.01060
