24

Br         1.49064       -0.79544       -1.77928
C          2.95931       -0.37442       -0.70850
C          3.29574        0.86961       -0.36495
C          2.83641        2.24761       -0.59387
C          1.58567        2.64282       -1.35651
C          1.56428        4.22274       -1.41930
C          1.06360        4.12320        0.05585
C          0.30722        2.83683       -0.47850
O          2.16034        3.88470        1.00590
C          2.66700        2.56101        0.88177
O          3.94117        2.20892        1.41065
C          4.25556        1.02703        0.76803
N          5.20261        0.26064        1.14747
C          5.33065       -0.88915        0.41041
O          6.42074       -1.35834        0.09551
S          3.85405       -1.73559       -0.09766
H          3.68769        2.79407       -1.02578
H          1.46141        2.18181       -2.33861
H          0.84297        4.65481       -2.12293
H          2.52417        4.72997       -1.55814
H          0.41931        4.93761        0.39717
H         -0.60367        3.04410       -1.05477
H          0.07818        2.04086        0.23372
H          1.93208        1.92040        1.39526
