27

Br         1.01925        0.46753       -0.46276
C          2.86623        0.10827       -0.32726
C          3.36096       -1.12381       -0.13028
C          2.51343       -2.36877       -0.01588
C          1.82204       -2.54709        1.35903
C          1.42846       -3.99974        1.39877
C          0.81130       -4.70469        0.21572
C          2.30417       -4.73876        0.44155
C          3.22959       -3.73540       -0.22406
C          4.61098       -3.72908        0.42971
N          5.36036       -2.58942       -0.04336
C          4.84067       -1.31999       -0.09879
N          5.73888       -0.39019       -0.12271
C          5.44371        0.93993       -0.18808
O          6.32340        1.78230       -0.05601
S          3.82541        1.52364       -0.50237
H          1.73639       -2.32127       -0.79146
H          0.95098       -1.89874        1.48003
H          2.52046       -2.33837        2.17859
H          1.23719       -4.38626        2.38941
H          0.41058       -4.12236       -0.60662
H          0.24465       -5.60994        0.40644
H          2.76017       -5.67486        0.73137
H          3.32464       -3.95317       -1.29401
H          5.14741       -4.65082        0.17899
H          4.54243       -3.69316        1.52094
H          6.35798       -2.60254        0.14678
