32

Br         2.80906        0.25825       -3.05595
C          3.72929        0.19411       -1.45023
C          3.76592       -0.81196       -0.55862
C          3.01343       -2.14322       -0.38319
C          1.72843       -2.67875       -1.07266
C          0.40529       -2.15355       -0.45175
C         -0.00706       -2.84343        0.89187
C          0.48318       -1.89239        2.00544
C          1.54886       -1.08244        1.28336
C          0.70918       -0.74659        0.01895
N          2.67394       -2.06394        1.07016
C          3.94038       -1.63989        1.69020
C          4.53421       -0.70347        0.69896
C          5.56600        0.12577        0.91395
S          5.95143        1.33565       -0.26093
C          4.33706        1.46238       -0.94233
N          3.71970        2.59377       -0.82327
H          3.76550       -2.93613       -0.53969
H          1.72124       -3.77720       -0.99293
H          1.75879       -2.45547       -2.14245
H         -0.40458       -2.22834       -1.18162
H          0.43821       -3.83759        1.00282
H         -1.09449       -2.95196        0.96330
H          0.84492       -2.40923        2.89872
H         -0.33488       -1.23100        2.32203
H          1.84459       -0.17117        1.81417
H          1.20735       -0.14258       -0.73136
H         -0.21569       -0.21052        0.26814
H          4.58579       -2.52141        1.81424
H          3.78777       -1.19653        2.67614
H          6.11570        0.11254        1.84809
H          4.34253        3.23762       -0.33856
