23

Br         1.66785        0.23489        0.01386
C          3.48262       -0.22596        0.11937
C          3.97640       -1.44093        0.43569
C          3.23026       -2.64806        0.76225
C          1.94656       -3.05622        0.86923
C          1.89957       -4.41528        1.24938
C          1.07608       -5.46887        1.54472
C          1.93933       -6.56842        1.85775
C          3.24955       -6.13619        1.73688
N          3.18883       -4.82800        1.36742
C          4.09094       -3.83267        1.08921
N          5.37352       -3.93022        1.11263
C          6.02292       -2.75538        0.78441
C          5.45150       -1.57232        0.46329
N          6.24017       -0.49556        0.16832
C          5.66248        0.61644       -0.11944
O          4.33276        0.86147       -0.17150
H          1.05400       -2.47196        0.70374
H         -0.00585       -5.47636        1.54592
H          1.63703       -7.56875        2.14189
H          4.19939       -6.63371        1.88079
H          7.10876       -2.82324        0.79706
H          6.23155        1.52571       -0.36441
