29

Br         1.08191       -0.09412       -0.36623
C          2.96570       -0.01897       -0.23589
C          3.59112        1.08234        0.28549
C          3.13195        2.35502        0.93810
C          3.39642        3.57595        0.03595
C          4.95172        3.61304       -0.02844
N          5.47508        4.94003        0.41600
C          6.54348        5.28850       -0.53672
C          6.05599        4.82055       -1.89237
C          5.42624        3.52644       -1.47652
O          5.24167        2.59997       -2.25101
C          5.34791        2.44366        0.92637
N          4.23809        2.56438        1.93275
C          4.99108        1.11078        0.33499
C          5.74765        0.03894       -0.07147
C          5.03247       -1.04410       -0.55484
N          3.67385       -1.09511       -0.66092
H          2.14073        2.31642        1.39336
H          3.00247        4.48165        0.51790
H          2.92428        3.48730       -0.94768
H          5.87476        4.87241        1.35416
H          7.46889        4.76142       -0.26866
H          6.74903        6.36283       -0.52763
H          6.86424        4.66627       -2.60696
H          5.28443        5.48101       -2.30105
H          6.34319        2.49151        1.37345
H          4.18906        3.51514        2.29812
H          6.82660        0.02411       -0.00098
H          5.54638       -1.94715       -0.87692
