27

Br         1.38510        0.16965        0.98795
C          3.19133        0.17923        0.45554
C          3.92415        1.34366        0.38842
C          3.68384        2.73178        0.93022
C          4.25932        3.50186       -0.26799
C          5.65502        2.83176       -0.19169
C          5.20881        1.37617       -0.19114
C          5.86755        0.20848       -0.50850
C          5.17003       -0.99362       -0.33916
C          3.82622       -1.00538        0.08641
C          6.07024        3.21064        1.24096
O          6.27816        4.60663        1.41027
C          5.43442        4.97752        2.38995
N          4.53437        4.15388        2.81828
C          4.77923        2.93337        2.04120
C          7.33237        2.46276        1.65284
O          8.46668        2.90737        1.52378
H          2.65779        2.97805        1.20649
H          4.27693        4.58709       -0.11769
H          3.73177        3.29618       -1.20811
H          6.32525        3.12614       -1.00193
H          6.90045        0.20632       -0.84304
H          5.66675       -1.94025       -0.54606
H          3.29494       -1.95254        0.14564
H          5.57075        6.01247        2.73358
H          4.86223        2.06715        2.70650
H          7.18135        1.42561        2.01501
