25

Br         1.03365        0.24149        0.11462
C          2.89122        0.16647        0.03121
C          3.66810        1.20065       -0.33388
C          3.32493        2.62724       -0.69858
C          4.50040        3.03937       -1.58696
C          5.69407        2.32629       -0.96667
C          5.11240        1.06995       -0.40866
C          5.72192       -0.05147       -0.01778
N          4.96295       -1.10369        0.42068
C          3.57837       -1.11779        0.44723
O          2.97049       -2.11776        0.80329
C          6.35417        3.18873        0.08322
O          7.50755        3.58794       -0.07608
C          5.59269        3.57226        1.37495
O          6.21214        4.07680        2.30335
O          4.30977        3.21184        1.50957
C          3.29978        3.54115        0.53336
H          2.38946        2.71839       -1.26054
H          4.63293        4.12774       -1.62556
H          4.33443        2.69694       -2.61635
H          6.43169        2.10256       -1.74703
H          6.79902       -0.18850       -0.03263
H          5.40911       -1.96193        0.72591
H          3.39705        4.59880        0.25971
H          2.33668        3.43707        1.04582
