26

Br         1.76042        1.63368        0.54796
C          3.05009        0.26789        0.37688
C          2.72286       -1.05933        0.53484
C          1.41416       -1.74038        0.78920
C          1.48182       -2.61311       -0.48532
C          2.77912       -3.35496       -0.05846
C          3.62114       -2.06293        0.14662
N          4.85864       -1.81287       -0.29466
C          5.19772       -0.49341       -0.34044
C          4.33329        0.56704       -0.05461
C          2.23814       -3.95570        1.25712
C          1.66526       -2.71495        1.97812
N          1.05636       -4.84712        1.01164
C          1.20984       -5.79720        1.85937
O          2.36635       -5.87079        2.53670
C          3.13122       -4.83573        2.09427
O          4.30830       -4.67954        2.38422
H          0.54265       -1.09682        0.89617
H          1.60702       -2.03342       -1.41234
H          0.60747       -3.25344       -0.62269
H          3.18656       -4.04549       -0.79789
H          6.21246       -0.28549       -0.66981
H          4.64827        1.59441       -0.21297
H          2.38250       -2.31652        2.70947
H          0.73972       -2.94357        2.51534
H          0.48769       -6.59620        2.07396
