27

Br         1.54147        0.24472        0.62335
C          3.30510        0.26491       -0.05440
C          4.03515        1.40975       -0.05038
C          3.87592        2.77627        0.52469
C          4.48460        3.55575       -0.65262
C          5.84733        2.80222       -0.62103
C          5.27344        1.38271       -0.67181
N          5.83980        0.29253       -1.17357
C          5.05963       -0.80493       -1.07941
N          3.80457       -0.87316       -0.56931
C          6.32025        3.12481        0.81532
C          7.62928        2.38282        1.29832
C          7.77423        2.84806        2.73809
N          7.89448        3.23401        3.93250
C          4.97479        2.89511        1.63218
C          6.64036        4.61492        0.93328
O          7.18064        5.24940        0.03555
H          2.86137        3.06534        0.81103
H          4.54920        4.63105       -0.45882
H          3.93946        3.41558       -1.59647
H          6.52229        3.06150       -1.43822
H          5.47369       -1.73751       -1.44697
H          8.49819        2.68689        0.70650
H          7.51220        1.29643        1.25954
H          4.73435        3.73194        2.29441
H          5.01543        1.98150        2.24086
H          6.43166        5.09650        1.90425
