24

Br         0.86459       -0.25173       -0.09323
C          2.75026       -0.22743        0.01253
C          3.49895       -1.32034        0.22825
C          2.86832       -2.67868        0.44188
C          2.95198       -3.57832       -0.81587
C          4.25532       -4.20510       -0.21047
C          3.64995       -3.82042        1.17428
C          5.57015       -3.47903       -0.51143
N          5.74727       -2.31260        0.32415
C          4.99247       -1.17436        0.21374
N          5.67404       -0.09122        0.10512
C          5.11264        1.12595       -0.15899
O          5.81545        2.10491       -0.39399
S          3.38148        1.35874       -0.22721
C          4.35675       -5.61194       -0.48556
N          4.50133       -6.71727       -0.81295
H          1.86512       -2.60590        0.87750
H          3.05470       -3.07584       -1.78397
H          2.10382       -4.27343       -0.88875
H          4.33310       -3.51665        1.97546
H          2.98881       -4.58535        1.60364
H          5.61305       -3.19398       -1.56938
H          6.43468       -4.13724       -0.33588
H          6.49245       -2.30925        1.01541
