30

Br         1.21311        0.13336       -0.75676
C          3.05807       -0.02116       -0.31913
C          3.66092       -1.24110        0.03472
C          2.89452       -2.50744        0.30743
C          1.94435       -2.35802        1.53395
C          1.07098       -3.62832        1.65366
C          2.01699       -4.63964        2.31445
C          3.36008       -3.90023        2.26844
C          2.91624       -2.50799        2.70314
C          3.75696       -3.70157        0.77321
C          5.24216       -3.58155        0.63459
N          6.02503       -4.60233        0.75901
O          5.79845       -2.36354        0.40737
C          5.04006       -1.21096        0.16309
N          5.79645       -0.09619        0.06075
C          5.16704        1.06210       -0.19263
C          3.81031        1.14938       -0.40012
H          2.34022       -2.78344       -0.59914
H          1.35122       -1.44540        1.57461
H          0.72470       -3.98454        0.67665
H          0.19290       -3.45639        2.28261
H          2.03344       -5.60646        1.80377
H          1.71416       -4.80946        3.35664
H          4.12912       -4.35219        2.89871
H          3.72618       -1.77267        2.71136
H          2.41650       -2.49563        3.67833
H          3.46866       -4.59285        0.19556
H          5.48978       -5.45554        0.94597
H          5.80543        1.94080       -0.23253
H          3.35417        2.11004       -0.61954
