28

Br         1.44497       -0.62224       -0.98192
C          3.17786       -0.16480       -0.59289
C          3.63026        0.87382        0.11003
C          3.16531        2.15634        0.77086
C          4.43429        1.87642        1.62290
C          5.37987        2.98494        2.03353
C          5.09399        4.28196        1.27598
C          4.68864        4.02766       -0.15892
C          3.26128        3.52636        0.04958
C          2.78475        4.57292        1.06124
O          3.93270        4.90106        1.86941
N          4.84120        0.96132        0.58614
N          5.90366        0.96577       -0.25511
C          5.83565       -0.01902       -1.11393
S          4.48040       -1.21557       -1.07091
O          4.81441       -2.16489       -0.01918
O          4.33136       -1.65899       -2.44172
H          2.20982        2.04931        1.29572
H          4.19007        1.27693        2.51697
H          6.42158        2.66874        1.92690
H          5.21637        3.17602        3.10387
H          5.94310        4.96438        1.38370
H          5.36514        3.36574       -0.69891
H          4.67545        4.98620       -0.69597
H          2.66760        3.53818       -0.86878
H          1.98617        4.21932        1.71972
H          2.44847        5.49095        0.56837
H          6.56741       -0.12646       -1.93178
