27

Br         0.97597       -0.20009       -0.11562
C          2.86572       -0.13207       -0.23081
C          3.59942       -1.20090        0.12827
C          3.11918       -2.53029        0.71049
C          4.32934       -2.78907        1.66045
C          5.50270       -2.56844        0.66408
C          5.47351       -3.53009       -0.51940
C          5.25432       -4.91894       -1.11408
C          4.21583       -4.43131       -0.24559
N          3.04937       -3.56590       -0.36467
N          5.04552       -1.21458        0.19669
S          5.97098       -0.21581       -0.76220
O          5.86861       -0.61170       -2.15418
O          7.26122       -0.03843       -0.11681
C          5.14419        1.35938       -0.61469
N          5.79478        2.45811       -0.34894
S          3.40954        1.43008       -0.77687
H          2.18461       -2.47137        1.27432
H          4.32382       -3.76316        2.15692
H          4.35162       -2.03495        2.46230
H          6.47111       -2.51839        1.16954
H          5.66923       -2.92971       -1.40249
H          5.86852       -5.74609       -0.77794
H          5.01587       -4.97972       -2.17392
H          4.15458       -5.09387        0.62225
H          2.18123       -4.09374       -0.27754
H          6.79850        2.21347       -0.25417
