27

Br         1.30362        0.32290        0.43797
C          3.10652        0.24703       -0.06296
C          3.91608        1.29139        0.09081
C          3.75552        2.66984        0.67464
C          5.10986        2.82369        1.38001
C          5.92745        2.61588        0.10193
C          5.29790        3.65392       -0.83323
C          5.76073        5.08966       -0.60258
C          4.48259        5.90057       -0.70332
C          3.43091        4.98636       -0.10223
N          3.84467        3.62442       -0.46041
C          5.35306        1.26327       -0.26944
N          6.05571        0.30498       -0.75320
S          5.32925       -1.17051       -1.03616
C          3.60845       -1.02712       -0.65276
O          2.86558       -1.98362       -0.85340
H          2.88463        2.79429        1.32159
H          5.29608        2.05082        2.13623
H          5.25731        3.80426        1.84232
H          7.01082        2.63730        0.20940
H          5.40159        3.38067       -1.89053
H          6.50189        5.40960       -1.34146
H          6.20844        5.22422        0.38885
H          4.25477        6.11555       -1.75297
H          4.55653        6.85089       -0.16553
H          2.43878        5.20487       -0.51329
H          3.38362        5.13784        0.98154
