26

Br         1.03250       -0.20416        0.07980
C          2.88159        0.08512        0.12454
C          3.48770        1.30113        0.17155
C          2.91769        2.62277        0.15419
C          3.71076        3.72442       -0.14457
C          5.18383        3.68891       -0.47284
C          5.80711        2.49944        0.27001
C          7.18833        1.98270       -0.22120
N          7.03763        0.50695       -0.29800
C          5.70412        0.20417       -0.10983
C          4.94857        1.27622        0.12410
C          4.99843       -1.10770       -0.13444
N          5.63536       -2.22351       -0.30817
N          3.63370       -1.08609        0.03663
S          2.77611        5.14731       -0.08572
C          1.40761        4.19513        0.34276
N          1.60425        2.89682        0.44362
H          5.68253        4.61759       -0.17217
H          5.30298        3.58052       -1.55733
H          5.87902        2.74364        1.33963
H          7.98757        2.25103        0.47726
H          7.43919        2.37436       -1.21274
H          7.65467       -0.03797        0.30095
H          6.63042       -2.00733       -0.43945
H          3.12791       -1.95403       -0.06376
H          0.44037        4.64738        0.52065
