27

Br         1.16401       -0.31047       -0.33113
C          3.04786       -0.27488       -0.19721
C          3.77935       -1.42080        0.05943
C          3.23015       -2.83160        0.33263
C          2.82278       -3.83520       -0.80732
C          3.63615       -5.19080       -0.52835
C          4.86035       -4.65184        0.11364
C          6.23548       -4.74471        0.06207
N          6.72209       -3.44465        0.32744
C          5.66293       -2.62685        0.60592
C          5.20926       -1.31321        0.23936
C          5.88764       -0.12116        0.10084
C          5.12563        1.02050       -0.16255
C          3.72350        0.94831       -0.29916
C          4.55840       -3.41539        0.65102
C          7.08792       -5.83549       -0.33304
O          8.30872       -5.75592       -0.41730
H          2.57196       -2.87113        1.20650
H          3.11766       -3.43668       -1.78741
H          1.74372       -4.01562       -0.83240
H          3.82540       -5.73348       -1.45968
H          3.07670       -5.82678        0.16880
H          7.67580       -3.16268        0.13859
H          6.96185       -0.05794        0.23187
H          5.61735        1.98862       -0.23978
H          3.16578        1.86850       -0.46252
H          6.57286       -6.78837       -0.55156
