20

Br         1.47066        0.29897        0.49462
C          2.13175        2.04585        0.40632
C          3.44953        2.35424        0.26385
C          3.73808        3.70165        0.15790
C          4.88980        4.37667       -0.07444
C          4.51477        5.78353       -0.14609
C          3.13585        5.82014        0.02662
N          2.75864        4.56218        0.20938
C          1.43663        4.41981        0.33668
O          1.07912        3.10482        0.46413
N          0.84897        5.57773        0.27693
C          1.89079        6.51945        0.07810
N          1.68402        7.77050       -0.05483
C          6.03897        3.51983       -0.21085
N          5.92153        2.22234       -0.09928
C          4.71902        1.53208        0.15999
O          4.68658        0.31696        0.30693
H          5.16112        6.62964       -0.34140
H          0.66800        7.90136        0.02146
H          7.02102        3.97023       -0.42267
