27

Br         1.37276       -0.16077        0.35751
C          3.12458       -0.07326       -0.25317
C          3.73825        1.07144       -0.53761
C          3.42318        2.51571       -0.40379
C          4.27980        3.03227       -1.62515
C          5.69023        2.48274       -1.27145
C          6.35507        3.17957        0.05875
O          5.88379        4.29443        1.10401
C          4.64745        3.83839        1.94160
C          4.05880        3.19623        0.78226
C          5.43290        2.48638        0.91072
O          5.71596        1.50848        1.59368
C          5.18719        1.00203       -0.97599
N          5.91740       -0.06500       -0.87609
C          5.24396       -1.12297       -0.28989
N          5.96795       -1.97750        0.34626
N          3.87712       -1.22152       -0.26413
H          2.36190        2.75543       -0.53872
H          4.28215        4.12128       -1.73957
H          3.91865        2.61013       -2.57654
H          6.37273        2.50291       -2.12698
H          7.41698        3.00128        0.22751
H          4.09269        4.69464        2.31024
H          4.93077        3.22549        2.82857
H          3.98384        4.18626        0.29159
H          6.92503       -1.61501        0.27595
H          3.54240       -1.93797        0.37022
