23

Br         2.72944        0.96921        2.32641
C          2.46831       -0.24043        0.96662
C          3.05256       -1.44439        0.78783
C          4.06090       -2.37305        1.52570
C          3.85127       -3.63698        2.51465
C          2.47678       -4.25784        2.28099
C          2.39984       -4.32425        0.76977
O          1.11873       -3.86005        0.23831
C          1.38684       -2.57484       -0.19899
C          0.45252       -1.60658       -0.29215
S          1.11589        0.03135       -0.17723
O          0.09817        0.85069        0.45407
O          1.64336        0.41627       -1.47249
N          2.72673       -2.27460       -0.14851
C          3.48670       -3.31966        0.39029
H          4.03450       -1.81418        2.46977
H          4.64499       -4.36688        2.28704
H          3.99118       -3.37650        3.57163
H          1.68694       -3.63925        2.71929
H          2.41950       -5.25398        2.73192
H          2.60001       -5.32649        0.37822
H         -0.60943       -1.75089       -0.19052
H          4.23648       -3.70108       -0.31426
