27

Br         1.62349       -0.18181        1.15700
C          3.35863       -0.10192        0.50590
C          4.23142       -1.11357        0.56580
C          4.21633       -2.49684        1.15763
C          4.74856       -3.25627       -0.06895
C          6.05605       -2.44313       -0.13439
C          6.62743       -2.77750        1.25302
O          7.60990       -1.85912        1.69134
C          7.13598       -1.13269        2.74224
O          7.77477       -0.25662        3.29579
C          5.74825       -1.57159        3.13470
C          5.39996       -2.68902        2.16951
C          5.49808       -1.03491       -0.14183
C          5.94575        0.12053       -0.63972
C          5.04382        1.30647       -0.54533
O          5.41638        2.41186       -0.91838
N          3.77429        1.07480       -0.06621
H          3.24914       -2.83683        1.53118
H          4.11478       -3.15151       -0.95932
H          4.90745       -4.32260        0.13005
H          6.71571       -2.67243       -0.97261
H          7.05405       -3.78832        1.26427
H          5.06725       -0.72112        3.08767
H          5.79323       -1.95062        4.15871
H          5.25733       -3.63476        2.70693
H          6.90411        0.25044       -1.12309
H          3.14311        1.86657       -0.06386
