25

Br         1.38418        0.16903        1.01946
C          3.13978        0.15536        0.41127
C          3.95478        1.21750        0.44977
C          3.82152        2.61943        1.00209
C          4.47679        3.39183       -0.14641
C          5.79971        2.60618       -0.06478
C          6.20623        2.82001        1.40176
O          6.70376        4.11839        1.64902
C          5.91824        4.70561        2.59664
O          6.17776        5.76576        3.13685
O          4.79144        3.97725        2.84071
C          4.87585        2.75602        2.13838
C          5.28452        1.18966       -0.14660
C          5.81810        0.04635       -0.56647
N          5.05801       -1.09488       -0.50234
C          3.72900       -1.13652       -0.10738
O          3.09699       -2.18779       -0.15525
H          2.81597        2.95472        1.26047
H          4.58696        4.46129        0.06184
H          3.95166        3.27485       -1.10384
H          6.53334        2.89980       -0.81776
H          6.93722        2.07992        1.74382
H          4.82908        1.91899        2.84469
H          6.83131       -0.04616       -0.94599
H          5.44537       -1.98253       -0.79982
