23

Br         0.93835        0.18444        0.20892
C          2.80564       -0.00583       -0.04210
C          3.49806       -1.16918       -0.18944
C          2.83629       -2.49044       -0.28919
C          3.46366       -3.62970        0.03999
C          4.90199       -3.67735        0.41088
C          5.65490       -2.54230       -0.29303
C          5.00580       -1.15560       -0.18414
C          5.77135       -0.04128       -0.09200
Br         7.66759       -0.07922       -0.12917
C          5.21728        1.33708        0.02776
N          5.92181        2.41448        0.14287
S          3.51106        1.57426        0.01357
O          2.79363       -4.86227       -0.06544
C          1.55601       -4.54049       -0.55008
N          0.64622       -5.43697       -0.68365
S          1.28917       -2.87204       -0.95427
H          5.34167       -4.63022        0.09588
H          5.01142       -3.60944        1.49908
H          5.74809       -2.78179       -1.36296
H          6.66994       -2.56266        0.11726
H          6.92151        2.18441        0.13962
H          1.04049       -6.32721       -0.36736
