26

Br         1.17184       -0.58973        0.53211
C          3.02950       -0.25522        0.28797
C          3.63423        1.02624        0.21617
C          2.89062        2.29036        0.20615
C          3.58386        3.48054        0.13917
C          5.02805        3.73500        0.09103
C          5.81943        2.42808        0.02004
C          5.05655        1.10939        0.10250
C          5.85967       -0.04980        0.02360
C          5.21124       -1.27744        0.03040
C          3.83669       -1.41046        0.16474
N          3.48744       -2.74860        0.13003
C          4.60887       -3.40382       -0.05744
N          5.67919       -2.56274       -0.09647
O          2.75850        4.55364        0.09899
C          1.49805        4.05795        0.12704
C          1.52471        2.68196        0.18662
H          5.33344        4.30644        0.97524
H          5.27156        4.35680       -0.77947
H          6.56843        2.44047        0.82379
H          6.38379        2.42506       -0.92265
H          6.93908        0.01786       -0.07714
H          4.70168       -4.47575       -0.17610
H          6.64228       -2.83443       -0.23040
H          0.70322        4.78959        0.08843
H          0.63453        2.07480        0.19777
