28

Br         1.08862       -0.24840        0.02053
C          2.96097        0.01071        0.01899
C          3.57076        1.22231        0.34381
C          2.84403        2.48483        0.76752
C          3.51717        3.02864        2.04853
C          5.05897        3.11838        1.95373
C          5.61992        2.63370        0.60146
C          4.97527        1.31228        0.27014
C          5.70359        0.19223       -0.10212
N          5.13281       -0.99382       -0.39416
C          3.77956       -1.05544       -0.33304
C          5.36377        3.64863       -0.52890
O          6.17552        3.78926       -1.44207
C          4.06517        4.41568       -0.45483
C          2.83393        3.50378       -0.39658
C          3.87574        5.50511       -1.49774
N          3.71859        6.40889       -2.36291
H          1.80304        2.26207        1.02338
H          3.26689        2.37014        2.88990
H          3.09914        4.00961        2.30876
H          5.48267        2.50257        2.75886
H          5.38635        4.14486        2.16224
H          6.70613        2.52612        0.70252
H          6.78822        0.21000       -0.17209
H          3.36392       -2.02747       -0.58792
H          4.11384        5.00319        0.47093
H          2.70170        2.98599       -1.35677
H          1.94514        4.13890       -0.27599
