28

Br         1.05958        0.44097        0.62536
C          2.80679        0.38275       -0.02548
C          3.72024        1.30025        0.28748
C          3.81203        2.48798        1.22920
C          5.31189        2.35955        1.64354
C          5.85259        2.40169        0.20037
C          5.17766        3.65058       -0.42229
C          3.90198        3.82181        0.45454
C          2.69304        4.64886       -0.08055
C          3.38800        5.86727        0.55218
N          4.10487        4.94899        1.44729
C          5.11321        1.16584       -0.22774
N          5.69275        0.13886       -0.73745
C          4.93638       -0.99370       -0.77773
N          5.56912       -2.09878       -0.58064
S          3.21117       -0.98689       -1.02052
H          3.10874        2.46947        2.06230
H          5.52048        1.41504        2.16089
H          5.68585        3.18292        2.24925
H          6.93341        2.33568        0.07076
H          4.89675        3.47292       -1.47254
H          5.82970        4.52734       -0.38358
H          1.73089        4.41336        0.38888
H          2.56282        4.71585       -1.16307
H          2.74602        6.58598        1.07109
H          4.05904        6.42431       -0.11196
H          3.61999        4.81078        2.33653
H          6.54620       -1.82084       -0.43141
