23

Br         1.09751        0.34360        0.06682
C          2.96050        0.06800        0.06909
C          3.59257       -1.13997        0.06900
C          2.98139       -2.47189        0.06794
C          1.71045       -2.93326        0.06723
C          1.69738       -4.38853        0.06732
C          2.95660       -4.85193        0.06808
C          3.81808       -3.68594        0.06831
C          5.16171       -3.60449        0.06907
Br         6.23713       -5.15124        0.07061
C          5.80669       -2.27477        0.06932
C          7.32577       -2.22188        0.06881
C          8.62883       -2.17650        0.06838
C          5.09910       -1.11356        0.06995
N          5.65558        0.14950        0.07120
C          4.88570        1.26791        0.07212
N          3.59635        1.30141        0.07095
H          0.78839       -2.37823        0.06701
H          0.79707       -4.98471        0.06722
H          3.26371       -5.88510        0.06864
H          9.69425       -2.15614        0.06801
H          6.66499        0.22237        0.07218
H          5.46840        2.20390        0.07404
