28

Br         1.03651        0.05159       -0.26359
C          2.91289        0.02383       -0.32259
C          3.67888       -1.05941       -0.72032
C          3.33224       -2.51681       -0.96692
C          2.25699       -3.22153       -0.13570
C          2.92521       -3.56569        1.20361
C          4.36566       -3.04582        1.13115
C          4.63571       -3.13405       -0.39932
C          5.76056       -2.24969       -0.90954
C          5.09317       -0.93159       -0.69554
C          5.69555        0.21962       -0.27019
N          4.96951        1.27362        0.16041
C          3.61489        1.14157        0.13194
C          3.07622       -5.06999        1.36069
C          3.20575       -6.36038        1.49543
C          2.15658       -3.00124        2.38725
N          1.51893       -2.53298        3.36917
H          3.21311       -2.70575       -2.03931
H          1.96463       -4.14291       -0.65893
H          1.33807       -2.64966       -0.02328
H          5.09371       -3.62478        1.71125
H          4.41846       -2.02618        1.53104
H          4.77781       -4.17985       -0.69685
H          5.94138       -2.42541       -1.97716
H          6.68550       -2.37408       -0.34158
H          6.77265        0.30653       -0.16175
H          3.08204        1.99694        0.54601
H          3.30727       -7.41543        1.61275
